/*--------------------------------*- C++ -*----------------------------------*\
| =========                 |                                                 |
| \\      /  F ield         | OpenFOAM: The Open Source CFD Toolbox           |
|  \\    /   O peration     | Version:  5                                     |
|   \\  /    A nd           | Web:      www.OpenFOAM.org                      |
|    \\/     M anipulation  |                                                 |
\*---------------------------------------------------------------------------*/
FoamFile
{
    version     2.0;
    format      ascii;
    class       dictionary;
    object      blockMeshDict;
}
/*
Ver information
4/4 snappy hexMeshでメッシュ作成する為に作成*/
// * * * * * * * * * * * * * * * * * * * * * * * * * * * * * * * * * * * * * //

convertToMeters  1;

minx -0.1;
maxx 10.1;
miny -0.1;
maxy 10.1;
minz -0.1;
maxz 10.1;

nx 102;
ny 102;
nz 102;

vertices
(
    ($minx $miny $minz)
    ($maxx $miny $minz)
    ($maxx $maxy $minz)
    ($minx $maxy $minz)
    ($minx $miny $maxz)
    ($maxx $miny $maxz)
    ($maxx $maxy $maxz)
    ($minx $maxy $maxz)
);

blocks
(
    hex (0 1 2 3 4 5 6 7) ($nx $ny $nz) simpleGrading (1 1 1)
);

edges
(
);

boundary
(
    minX
    {
        type patch;
        faces
        (
            (0 4 7 3)
        );
    }
    maxX
    {
        type patch;
        faces
        (
            (2 6 5 1)
        );
    }
    minY
    {
        type wall;
        faces
        (
            (1 5 4 0)
        );
    }
    maxY
    {
        type wall;
        faces
        (
            (3 7 6 2)
        );
    }
    minZ
    {
        type wall;
        faces
        (
            (0 3 2 1)
        );
    }
    maxZ
    {
        type wall;
        faces
        (
            (4 5 6 7)
        );
    }
);
// ************************************************************************* //
