/*--------------------------------*- C++ -*----------------------------------*\
| =========                 |                                                 |
| \\      /  F ield         | OpenFOAM: The Open Source CFD Toolbox           |
|  \\    /   O peration     | Version:  5                                     |
|   \\  /    A nd           | Web:      www.OpenFOAM.org                      |
|    \\/     M anipulation  |                                                 |
\*---------------------------------------------------------------------------*/
FoamFile
{
    version     2.0;
    format      ascii;
    class       volVectorField;
    object      U;//速度の境界条件を設定
}
// * * * * * * * * * * * * * * * * * * * * * * * * * * * * * * * * * * * * * //

dimensions      [0 1 -1 0 0 0 0];//dimensionsは単位を設定している。[kg m s K mol A Cd]。今回は、m/s。

internalField   uniform (0 0 0);//field内部の値を設定している。0ディレクトリ（今回）の場合は初期条件。

boundaryField
{
    fixedWalls
    {
        type            fixedValue;
        value           uniform (0 0 0);
    }

    inlet
    {
        type            surfaceNormalFixedValue;
        refValue        uniform 10;
    }

    outlet
    {
        type            zeroGradient;
    }

    frontAndBack
    {
        type            empty;
    }
}
//新しく作った境界条件（fixedWalls・inlet・outlet・frontAndBack）
/*前のやつ
movingWall
{
    type            fixedValue;
    value           uniform (1 0 0);
}

fixedWalls
{
    type            noSlip;
}

frontAndBack
{
    type            empty;
}*/

// ************************************************************************* //
