/*--------------------------------*- C++ -*----------------------------------*\
| =========                 |                                                 |
| \\      /  F ield         | OpenFOAM: The Open Source CFD Toolbox           |
|  \\    /   O peration     | Version:  5                                     |
|   \\  /    A nd           | Web:      www.OpenFOAM.org                      |
|    \\/     M anipulation  |                                                 |
\*---------------------------------------------------------------------------*/
FoamFile
{
    version     2.0;
    format      ascii;
    class       dictionary;
    object      blockMeshDict;
}
// * * * * * * * * * * * * * * * * * * * * * * * * * * * * * * * * * * * * * //

convertToMeters 0.001;//長さの単位0.001ならmm

vertices//点の座標。今回は流路と同じサイズに。
(
    (0 0 0)
    (4 0 0)
    (4 10 0)
    (0 10 0)
    (0 0 2)
    (4 0 2)
    (4 10 2)
    (0 10 2)
);

blocks//ブロック生成。
(
    hex (0 1 2 3 4 5 6 7) (20 50 10) simpleGrading (1 1 1)//すべてのメッシュが立方体になるように設定
);

edges
(
);

boundary//境界の面・名前
(
    outlet
    {
        type patch;
        faces
        (
            (3 7 6 2)
        );
    }
    fixedWalls
    {
        type wall;
        faces
        (
            (0 4 7 3)
            (2 6 5 1)
        );
    }
    inlet
    {
        type patch;
        faces
        (
            (1 5 4 0)
        );
    }
    frontAndBack
    {
        type empty;
        faces
        (
            (0 3 2 1)
            (4 5 6 7)
        );
    }
);

mergePatchPairs
(
);

// ************************************************************************* //
