/*--------------------------------*- C++ -*----------------------------------*\
| =========                 |                                                 |
| \\      /  F ield         | OpenFOAM: The Open Source CFD Toolbox           |
|  \\    /   O peration     | Version:  5                                     |
|   \\  /    A nd           | Web:      www.OpenFOAM.org                      |
|    \\/     M anipulation  |                                                 |
\*---------------------------------------------------------------------------*/
FoamFile
{
    version     2.0;
    format      ascii;
    class       dictionary;
    location    "system";
    object      fvSolution;//fvSchemeで離散化して得られた代数方程式を解くソルバ。
}
// * * * * * * * * * * * * * * * * * * * * * * * * * * * * * * * * * * * * * //

solvers
{
    p
    {
        solver          PCG;
        preconditioner  DIC;
        tolerance       1e-06;
        relTol          0.01;
    }
    U
    {
        solver          PBiCG;
        preconditioner  DILU;
        tolerance       1e-05;
        relTol          0.1;
    }
}
SIMPLE
{
    nNonOrthogonalCorrectors 0;//非直行補正のループ回数。
    pRefPoint       (0 0 0);
    pRefValue       0;

    residualControl
    {
        p           1e-3;
        U           1e-3;
    }
}
relaxationFactors//緩和係数設定。収束が遅いor計算が発散する場合は緩和係数を小さくする。
{
    fields
    {
        p           0.1;
    }
    equations
    {
        U           0.1;
    }
}
// ************************************************************************* //
